This is a message from GOODBYE

New line.

New line2.

New line3.

ollie ollie oxen free